/*---------------------------------------------------------------------------
     AdditiveFOAM template input file (compatible with 1.0, OpenFOAM 10)

                      Created for simulation with Myna
  ---------------------------------------------------------------------------*/

FoamFile
{
    version     2.0;
    format      ascii;
    class       volScalarField;
    object      p_rgh;
}
// * * * * * * * * * * * * * * * * * * * * * * * * * * * * * * * * * * * * * //

dimensions      [0 2 -2 0 0 0 0];

internalField   uniform 0;

boundaryField
{
    part
    {
        type            fixedFluxPressure;
        rho             rhok;
        value           uniform 0;
    }
}

// ************************************************************************* //
