/*--------------------------------*- C++ -*----------------------------------*\
  =========                 |
  \\      /  F ield         | OpenFOAM: The Open Source CFD Toolbox
   \\    /   O peration     | Website:  https://openfoam.org
    \\  /    A nd           | Version:  10
     \\/     M anipulation  |
\*---------------------------------------------------------------------------*/
FoamFile
{
    version     2.0;
    format      ascii;
    class       dictionary;
    object      transportProperties;
}

// * * * * * * * * * * * * * * * * * * * * * * * * * * * * * * * * * * * * * //

solid
{
    kappa   (4.957  0.01571   0.0);
    Cp      (770.4    0.0       0.0);
}

liquid
{
    kappa   (11.51    0.003279  0.0);
    Cp      (770.4    0.0       0.0);
}

powder
{
    kappa   (0.4957  0.001571   0.0);
    Cp      (42.3  0.01329       0.0);
}

//- fluid flow properties
rho     [1 -3 0 0 0 0 0]    7955.0;
mu      [1 -1 -1  0 0 0 0]  0.002188;
beta    [0 0 0 -1 0 0 0]    3.101e-5;
DAS     [0 1 0 0 0 0 0]     10e-6;
Lf      [0  2 -2  0 0 0 0]  2.68e5;

// ************************************************************************* //

