/*---------------------------------------------------------------------------
     AdditiveFOAM template input file (compatible with 1.0, OpenFOAM 10)

                      Created for simulation with Myna
  ---------------------------------------------------------------------------*/

FoamFile
{
    version     2.0;
    format      ascii;
    class       dictionary;
    location    "system";
    object      fvSolution;
}
// * * * * * * * * * * * * * * * * * * * * * * * * * * * * * * * * * * * * * //

solvers
{
    p_rgh
    {
        solver          GAMG;
        tolerance       1e-06;
        relTol          0.01;
        smoother        DIC;
    }

    p_rghFinal
    {
        $p_rgh;
        relTol          0;
    }

    "T.*"
    {
        solver          PBiCGStab;
        preconditioner  DILU;
        tolerance       1e-15;
        relTol          0;
        minIter         1;
        maxIter         20;
    }
}

PIMPLE
{
    momentumPredictor no;
    nOuterCorrectors 1;
    nCorrectors     1;
    nNonOrthogonalCorrectors 0;
    pRefCell        0;
    pRefValue       0;


    nThermoCorrectors   10;
    thermoTolerance     1e-08;
    explicitSolve       true;
    Tmax                3300.0;
}

relaxationFactors
{
    equations
    {
        ".*"   1;
    }
}

// ************************************************************************* //
